Circuit: * C:\Users\juanc\OneDrive - UTN.BA\UTN\Materias\4\circuitos_2\Práctica\TPS\TS13\spice\2_Rev1.asc


Date: Sat Nov 12 02:27:59 2022
Total elapsed time: 5.354 seconds.

tnom = 27
temp = 27
method = trap
totiter = 0
traniter = 0
tranpoints = 0
accept = 0
rejected = 0
matrix size = 3
fillins = 0
solver = Normal

