Circuit: * C:\Users\juanc\OneDrive - UTN.BA\UTN\Materias\4\circuitos_2\Práctica\TPS\ts12\spice\1.asc


Date: Wed Nov 02 03:58:26 2022
Total elapsed time: 0.025 seconds.

tnom = 27
temp = 27
method = trap
totiter = 0
traniter = 0
tranpoints = 0
accept = 0
rejected = 0
matrix size = 4
fillins = 1
solver = Normal

