Circuit: * C:\Users\juanc\OneDrive - UTN.BA\UTN\Materias\4\circuitos_2\Práctica\TPS\ts12\spice\Draft1.asc


Date: Sat Nov 05 18:29:48 2022
Total elapsed time: 1.087 seconds.

tnom = 27
temp = 27
method = trap
totiter = 0
traniter = 0
tranpoints = 0
accept = 0
rejected = 0
matrix size = 5
fillins = 0
solver = Normal

