Questionable use of curly braces in "c3 n002 n005 {q/r}"
    Error: undefined symbol in: "[q]/r"
Circuit: * C:\Users\juanc\OneDrive - UTN.BA\UTN\circuitos_2\TPS\TS3\ts3_inductor_opamp.asc

Error on line 7 : c3 n002 n005 (q/r)
	 Unable to find definition of model "q/r"
Fatal Error: Missing capacitance value for "C3"
