Circuit: * C:\Users\juanc\OneDrive - UTN.BA\UTN\circuitos_2\TPS\TS3\ts3_inductor_opamp.asc

Ignoring empty pin current: Ix(u3:1)
Ignoring empty pin current: Ix(u3:2)
Ignoring empty pin current: Ix(u1:1)
Ignoring empty pin current: Ix(u1:2)
Ignoring empty pin current: Ix(u4:1)
Ignoring empty pin current: Ix(u4:2)

Date: Mon May 16 17:01:19 2022
Total elapsed time: 0.016 seconds.

tnom = 27
temp = 27
method = trap
totiter = 0
traniter = 0
tranpoints = 0
accept = 0
rejected = 0
matrix size = 11
fillins = 5
solver = Normal

