Circuit: * C:\Users\juanc\OneDrive - UTN.BA\UTN\Materias\4\circuitos_2\Práctica\TPS\TS12(no_obligatoria)\spice\circuito_Rev2.asc

Ignoring empty pin current: Ix(u1:1)
Ignoring empty pin current: Ix(u1:2)

Date: Wed Oct 05 05:22:01 2022
Total elapsed time: 0.049 seconds.

tnom = 27
temp = 27
method = trap
totiter = 0
traniter = 0
tranpoints = 0
accept = 0
rejected = 0
matrix size = 7
fillins = 3
solver = Normal

