Circuit: * C:\Users\juanc\OneDrive - UTN.BA\UTN\Materias\4\circuitos_2\Práctica\TPS\TS12(no_obligatoria)\spice\Draft1.asc

Direct Newton iteration for .op point succeeded.

Date: Wed Oct 05 15:24:02 2022
Total elapsed time: 0.026 seconds.

tnom = 27
temp = 27
method = trap
totiter = 13
traniter = 0
tranpoints = 0
accept = 0
rejected = 0
matrix size = 10
fillins = 0
solver = Normal
Matrix Compiler1:      30 opcodes
Matrix Compiler2: 774 bytes object code size
