Circuit: * C:\Users\juanc\OneDrive - UTN.BA\UTN\circuitos_2\TPS\TS5\spice\2.asc


Date: Tue Jun 07 03:53:47 2022
Total elapsed time: 2.765 seconds.

tnom = 27
temp = 27
method = trap
totiter = 0
traniter = 0
tranpoints = 0
accept = 0
rejected = 0
matrix size = 15
fillins = 4
solver = Normal

