Circuit: * C:\Users\juanc\OneDrive - UTN.BA\UTN\circuitos 2\TP1\7-1.asc

Ignoring empty pin current: Ix(u1:1)
Ignoring empty pin current: Ix(u1:2)

Date: Sun Apr 24 14:35:06 2022
Total elapsed time: 0.091 seconds.

tnom = 27
temp = 27
method = trap
totiter = 0
traniter = 0
tranpoints = 0
accept = 0
rejected = 0
matrix size = 5
fillins = 1
solver = Normal

