Circuit: * C:\Users\juanc\OneDrive - UTN.BA\UTN\circuitos_2\TPS\TS6\spice\Draft1.asc


Date: Wed Jun 08 16:52:48 2022
Total elapsed time: 0.018 seconds.

tnom = 27
temp = 27
method = trap
totiter = 0
traniter = 0
tranpoints = 0
accept = 0
rejected = 0
matrix size = 4
fillins = 1
solver = Normal

